<?xml version="1.0" ?>
<net version="1.16">
  <location netOffset="983.86,991.41" convBoundary="883.63,910.59,1084.10,1072.22" origBoundary="883.63,910.59,1084.10,1072.22" projParameter="!"/>
  <edge id="edge_h0" from="n_h0_0" to="n_h0_1">
    <lane id="edge_h0_0" index="0" speed="13.89" length="200.47" shape="883.63,910.59 1084.10,910.59"/>
  </edge>
  <edge id="edge_h1" from="n_h1_0" to="n_h1_1">
    <lane id="edge_h1_0" index="0" speed="13.89" length="200.47" shape="883.63,951.00 1084.10,951.00"/>
  </edge>
  <edge id="edge_h2" from="n_h2_0" to="n_h2_1">
    <lane id="edge_h2_0" index="0" speed="13.89" length="200.47" shape="883.63,991.41 1084.10,991.41"/>
  </edge>
  <edge id="edge_h3" from="n_h3_0" to="n_h3_1">
    <lane id="edge_h3_0" index="0" speed="13.89" length="200.47" shape="883.63,1031.81 1084.10,1031.81"/>
  </edge>
  <edge id="edge_h4" from="n_h4_0" to="n_h4_1">
    <lane id="edge_h4_0" index="0" speed="13.89" length="200.47" shape="883.63,1072.22 1084.10,1072.22"/>
  </edge>
  <edge id="edge_v0" from="n_v0_0" to="n_v0_1">
    <lane id="edge_v0_0" index="0" speed="13.89" length="161.62" shape="883.63,910.59 883.63,1072.22"/>
  </edge>
  <edge id="edge_v1" from="n_v1_0" to="n_v1_1">
    <lane id="edge_v1_0" index="0" speed="13.89" length="161.62" shape="933.74,910.59 933.74,1072.22"/>
  </edge>
  <edge id="edge_v2" from="n_v2_0" to="n_v2_1">
    <lane id="edge_v2_0" index="0" speed="13.89" length="161.62" shape="983.86,910.59 983.86,1072.22"/>
  </edge>
  <edge id="edge_v3" from="n_v3_0" to="n_v3_1">
    <lane id="edge_v3_0" index="0" speed="13.89" length="161.62" shape="1033.98,910.59 1033.98,1072.22"/>
  </edge>
  <edge id="edge_v4" from="n_v4_0" to="n_v4_1">
    <lane id="edge_v4_0" index="0" speed="13.89" length="161.62" shape="1084.10,910.59 1084.10,1072.22"/>
  </edge>
  <junction id="n_h0_0" type="priority" x="883.63" y="910.59" incLanes="" intLanes="" shape="883.63,910.59"/>
  <junction id="n_h0_1" type="priority" x="1084.10" y="910.59" incLanes="edge_h0_0" intLanes="" shape="1084.10,910.59"/>
  <junction id="n_h1_0" type="priority" x="883.63" y="951.00" incLanes="" intLanes="" shape="883.63,951.00"/>
  <junction id="n_h1_1" type="priority" x="1084.10" y="951.00" incLanes="edge_h1_0" intLanes="" shape="1084.10,951.00"/>
  <junction id="n_h2_0" type="priority" x="883.63" y="991.41" incLanes="" intLanes="" shape="883.63,991.41"/>
  <junction id="n_h2_1" type="priority" x="1084.10" y="991.41" incLanes="edge_h2_0" intLanes="" shape="1084.10,991.41"/>
  <junction id="n_h3_0" type="priority" x="883.63" y="1031.81" incLanes="" intLanes="" shape="883.63,1031.81"/>
  <junction id="n_h3_1" type="priority" x="1084.10" y="1031.81" incLanes="edge_h3_0" intLanes="" shape="1084.10,1031.81"/>
  <junction id="n_h4_0" type="priority" x="883.63" y="1072.22" incLanes="" intLanes="" shape="883.63,1072.22"/>
  <junction id="n_h4_1" type="priority" x="1084.10" y="1072.22" incLanes="edge_h4_0" intLanes="" shape="1084.10,1072.22"/>
  <junction id="n_v0_0" type="priority" x="883.63" y="910.59" incLanes="" intLanes="" shape="883.63,910.59"/>
  <junction id="n_v0_1" type="priority" x="883.63" y="1072.22" incLanes="edge_v0_0" intLanes="" shape="883.63,1072.22"/>
  <junction id="n_v1_0" type="priority" x="933.74" y="910.59" incLanes="" intLanes="" shape="933.74,910.59"/>
  <junction id="n_v1_1" type="priority" x="933.74" y="1072.22" incLanes="edge_v1_0" intLanes="" shape="933.74,1072.22"/>
  <junction id="n_v2_0" type="priority" x="983.86" y="910.59" incLanes="" intLanes="" shape="983.86,910.59"/>
  <junction id="n_v2_1" type="priority" x="983.86" y="1072.22" incLanes="edge_v2_0" intLanes="" shape="983.86,1072.22"/>
  <junction id="n_v3_0" type="priority" x="1033.98" y="910.59" incLanes="" intLanes="" shape="1033.98,910.59"/>
  <junction id="n_v3_1" type="priority" x="1033.98" y="1072.22" incLanes="edge_v3_0" intLanes="" shape="1033.98,1072.22"/>
  <junction id="n_v4_0" type="priority" x="1084.10" y="910.59" incLanes="" intLanes="" shape="1084.10,910.59"/>
  <junction id="n_v4_1" type="priority" x="1084.10" y="1072.22" incLanes="edge_v4_0" intLanes="" shape="1084.10,1072.22"/>
  <junction id="traj_3_11_s" type="priority" x="987.11" y="1000.06" incLanes="" intLanes="" shape="987.11,1000.06"/>
  <junction id="traj_3_11_e" type="priority" x="939.03" y="1008.96" incLanes="" intLanes="" shape="939.03,1008.96"/>
  <edge id="traj_3_11" from="traj_3_11_s" to="traj_3_11_e">
    <lane id="traj_3_11_0" index="0" speed="13.89" length="48.90" shape="987.11,1000.06 985.85,1000.28 984.59,1000.49 983.34,1000.71 982.09,1000.92 980.85,1001.14 979.61,1001.36 978.37,1001.57 977.13,1001.79 975.90,1002.01 974.67,1002.23 973.45,1002.45 972.22,1002.67 970.99,1002.90 969.77,1003.12 968.55,1003.35 967.32,1003.58 966.10,1003.81 964.88,1004.04 963.65,1004.28 962.43,1004.52 961.20,1004.75 959.98,1004.99 958.76,1005.23 957.53,1005.47 956.31,1005.71 955.08,1005.95 953.85,1006.19 952.62,1006.43 951.39,1006.66 950.16,1006.90 948.93,1007.13 947.70,1007.37 946.46,1007.60 945.23,1007.83 943.99,1008.06 942.75,1008.29 941.51,1008.51 940.27,1008.74 939.03,1008.96"/>
  </edge>
  <junction id="traj_3_15_s" type="priority" x="1032.28" y="991.59" incLanes="" intLanes="" shape="1032.28,991.59"/>
  <junction id="traj_3_15_e" type="priority" x="985.11" y="1000.42" incLanes="" intLanes="" shape="985.11,1000.42"/>
  <edge id="traj_3_15" from="traj_3_15_s" to="traj_3_15_e">
    <lane id="traj_3_15_0" index="0" speed="13.89" length="47.99" shape="1032.28,991.59 1030.86,991.88 1029.43,992.17 1028.01,992.46 1026.60,992.74 1025.19,993.03 1023.80,993.31 1022.41,993.58 1021.03,993.86 1019.67,994.12 1018.32,994.38 1016.99,994.64 1015.67,994.89 1014.37,995.14 1013.08,995.39 1011.81,995.62 1010.56,995.86 1009.32,996.09 1008.11,996.31 1006.91,996.53 1005.73,996.75 1004.56,996.97 1003.41,997.17 1002.28,997.38 1001.16,997.58 1000.05,997.78 998.95,997.97 997.87,998.17 996.79,998.36 995.72,998.54 994.66,998.73 993.60,998.92 992.54,999.10 991.48,999.29 990.42,999.47 989.37,999.66 988.31,999.85 987.25,1000.04 986.18,1000.23 985.11,1000.42"/>
  </edge>
  <junction id="traj_3_6_s" type="priority" x="1008.08" y="998.47" incLanes="" intLanes="" shape="1008.08,998.47"/>
  <junction id="traj_3_6_e" type="priority" x="970.61" y="1002.87" incLanes="" intLanes="" shape="970.61,1002.87"/>
  <edge id="traj_3_6" from="traj_3_6_s" to="traj_3_6_e">
    <lane id="traj_3_6_0" index="0" speed="13.89" length="37.81" shape="1008.08,998.47 1007.48,998.42 1006.84,998.38 1006.18,998.35 1005.49,998.33 1004.78,998.32 1004.04,998.33 1003.29,998.34 1002.51,998.37 1001.71,998.40 1000.88,998.45 1000.04,998.51 999.18,998.57 998.30,998.65 997.40,998.73 996.49,998.82 995.55,998.92 994.60,999.03 993.64,999.15 992.66,999.28 991.66,999.41 990.65,999.55 989.63,999.69 988.59,999.84 987.54,1000.00 986.47,1000.16 985.40,1000.33 984.31,1000.50 983.21,1000.68 982.10,1000.86 980.98,1001.05 979.86,1001.24 978.72,1001.43 977.58,1001.63 976.43,1001.83 975.27,1002.03 974.11,1002.24 972.95,1002.44 971.78,1002.65 970.61,1002.87"/>
  </edge>
  <junction id="traj_3_12_s" type="priority" x="954.37" y="995.22" incLanes="" intLanes="" shape="954.37,995.22"/>
  <junction id="traj_3_12_e" type="priority" x="983.91" y="980.48" incLanes="" intLanes="" shape="983.91,980.48"/>
  <edge id="traj_3_12" from="traj_3_12_s" to="traj_3_12_e">
    <lane id="traj_3_12_0" index="0" speed="13.89" length="34.03" shape="954.37,995.22 955.38,994.98 956.39,994.74 957.39,994.50 958.38,994.27 959.36,994.03 960.34,993.79 961.30,993.55 962.25,993.31 963.20,993.07 964.13,992.82 965.05,992.57 965.95,992.32 966.85,992.06 967.73,991.80 968.59,991.52 969.44,991.24 970.28,990.95 971.10,990.64 971.90,990.33 972.69,989.99 973.46,989.64 974.22,989.28 974.96,988.89 975.68,988.49 976.39,988.06 977.08,987.62 977.75,987.15 978.40,986.66 979.04,986.14 979.66,985.61 980.25,985.05 980.84,984.46 981.40,983.86 981.94,983.23 982.46,982.58 982.96,981.90 983.45,981.20 983.91,980.48"/>
  </edge>
  <junction id="traj_3_9_s" type="priority" x="1023.30" y="986.87" incLanes="" intLanes="" shape="1023.30,986.87"/>
  <junction id="traj_3_9_e" type="priority" x="1012.92" y="961.72" incLanes="" intLanes="" shape="1012.92,961.72"/>
  <edge id="traj_3_9" from="traj_3_9_s" to="traj_3_9_e">
    <lane id="traj_3_9_0" index="0" speed="13.89" length="27.84" shape="1023.30,986.87 1022.95,986.63 1022.60,986.38 1022.25,986.10 1021.90,985.81 1021.56,985.49 1021.22,985.14 1020.88,984.78 1020.55,984.39 1020.22,983.98 1019.89,983.55 1019.58,983.09 1019.26,982.61 1018.96,982.10 1018.66,981.57 1018.37,981.01 1018.08,980.44 1017.81,979.83 1017.54,979.21 1017.28,978.55 1017.02,977.88 1016.78,977.18 1016.53,976.47 1016.30,975.72 1016.07,974.96 1015.85,974.18 1015.63,973.38 1015.41,972.56 1015.20,971.72 1014.98,970.87 1014.77,970.00 1014.56,969.12 1014.36,968.22 1014.15,967.31 1013.94,966.39 1013.74,965.47 1013.53,964.54 1013.32,963.60 1013.12,962.66 1012.92,961.72"/>
  </edge>
  <junction id="traj_3_14_s" type="priority" x="1034.10" y="987.64" incLanes="" intLanes="" shape="1034.10,987.64"/>
  <junction id="traj_3_14_e" type="priority" x="1008.98" y="992.27" incLanes="" intLanes="" shape="1008.98,992.27"/>
  <edge id="traj_3_14" from="traj_3_14_s" to="traj_3_14_e">
    <lane id="traj_3_14_0" index="0" speed="13.89" length="25.54" shape="1034.10,987.64 1033.71,987.72 1033.30,987.79 1032.85,987.88 1032.36,987.96 1031.85,988.06 1031.30,988.15 1030.73,988.26 1030.13,988.36 1029.51,988.47 1028.87,988.59 1028.21,988.71 1027.53,988.83 1026.84,988.95 1026.14,989.08 1025.42,989.21 1024.70,989.34 1023.97,989.47 1023.23,989.61 1022.49,989.74 1021.74,989.88 1020.99,990.02 1020.24,990.16 1019.49,990.30 1018.75,990.44 1018.01,990.58 1017.27,990.72 1016.55,990.86 1015.84,991.00 1015.13,991.13 1014.44,991.26 1013.77,991.38 1013.11,991.51 1012.46,991.63 1011.84,991.75 1011.23,991.86 1010.64,991.97 1010.06,992.07 1009.51,992.17 1008.98,992.27"/>
  </edge>
  <junction id="traj_3_16_s" type="priority" x="942.25" y="998.71" incLanes="" intLanes="" shape="942.25,998.71"/>
  <junction id="traj_3_16_e" type="priority" x="961.23" y="994.58" incLanes="" intLanes="" shape="961.23,994.58"/>
  <edge id="traj_3_16" from="traj_3_16_s" to="traj_3_16_e">
    <lane id="traj_3_16_0" index="0" speed="13.89" length="19.42" shape="942.25,998.71 943.32,998.48 944.38,998.25 945.44,998.01 946.49,997.78 947.53,997.55 948.57,997.33 949.60,997.10 950.62,996.88 951.63,996.65 952.64,996.44 953.63,996.22 954.62,996.00 955.59,995.79 956.56,995.58 957.51,995.38 958.46,995.17 959.39,994.97 960.32,994.77 961.23,994.58"/>
  </edge>
  <junction id="traj_3_8_s" type="priority" x="1011.42" y="972.41" incLanes="" intLanes="" shape="1011.42,972.41"/>
  <junction id="traj_3_8_e" type="priority" x="1014.42" y="960.59" incLanes="" intLanes="" shape="1014.42,960.59"/>
  <edge id="traj_3_8" from="traj_3_8_s" to="traj_3_8_e">
    <lane id="traj_3_8_0" index="0" speed="13.89" length="12.25" shape="1011.42,972.41 1011.66,971.89 1011.89,971.36 1012.12,970.82 1012.33,970.26 1012.53,969.69 1012.73,969.11 1012.91,968.52 1013.09,967.91 1013.25,967.28 1013.41,966.65 1013.56,966.01 1013.70,965.35 1013.83,964.69 1013.95,964.02 1014.07,963.34 1014.17,962.66 1014.26,961.97 1014.35,961.28 1014.42,960.59"/>
  </edge>
</net>
