<?xml version="1.0" ?>
<net version="1.16">
  <location netOffset="985.65,985.00" convBoundary="885.49,913.58,1085.81,1056.42" origBoundary="885.49,913.58,1085.81,1056.42" projParameter="!"/>
  <edge id="edge_h0" from="n_h0_0" to="n_h0_1">
    <lane id="edge_h0_0" index="0" speed="13.89" length="200.31" shape="885.49,913.58 1085.81,913.58"/>
  </edge>
  <edge id="edge_h1" from="n_h1_0" to="n_h1_1">
    <lane id="edge_h1_0" index="0" speed="13.89" length="200.31" shape="885.49,949.29 1085.81,949.29"/>
  </edge>
  <edge id="edge_h2" from="n_h2_0" to="n_h2_1">
    <lane id="edge_h2_0" index="0" speed="13.89" length="200.31" shape="885.49,985.00 1085.81,985.00"/>
  </edge>
  <edge id="edge_h3" from="n_h3_0" to="n_h3_1">
    <lane id="edge_h3_0" index="0" speed="13.89" length="200.31" shape="885.49,1020.71 1085.81,1020.71"/>
  </edge>
  <edge id="edge_h4" from="n_h4_0" to="n_h4_1">
    <lane id="edge_h4_0" index="0" speed="13.89" length="200.31" shape="885.49,1056.42 1085.81,1056.42"/>
  </edge>
  <edge id="edge_v0" from="n_v0_0" to="n_v0_1">
    <lane id="edge_v0_0" index="0" speed="13.89" length="142.84" shape="885.49,913.58 885.49,1056.42"/>
  </edge>
  <edge id="edge_v1" from="n_v1_0" to="n_v1_1">
    <lane id="edge_v1_0" index="0" speed="13.89" length="142.84" shape="935.57,913.58 935.57,1056.42"/>
  </edge>
  <edge id="edge_v2" from="n_v2_0" to="n_v2_1">
    <lane id="edge_v2_0" index="0" speed="13.89" length="142.84" shape="985.65,913.58 985.65,1056.42"/>
  </edge>
  <edge id="edge_v3" from="n_v3_0" to="n_v3_1">
    <lane id="edge_v3_0" index="0" speed="13.89" length="142.84" shape="1035.73,913.58 1035.73,1056.42"/>
  </edge>
  <edge id="edge_v4" from="n_v4_0" to="n_v4_1">
    <lane id="edge_v4_0" index="0" speed="13.89" length="142.84" shape="1085.81,913.58 1085.81,1056.42"/>
  </edge>
  <junction id="n_h0_0" type="priority" x="885.49" y="913.58" incLanes="" intLanes="" shape="885.49,913.58"/>
  <junction id="n_h0_1" type="priority" x="1085.81" y="913.58" incLanes="edge_h0_0" intLanes="" shape="1085.81,913.58"/>
  <junction id="n_h1_0" type="priority" x="885.49" y="949.29" incLanes="" intLanes="" shape="885.49,949.29"/>
  <junction id="n_h1_1" type="priority" x="1085.81" y="949.29" incLanes="edge_h1_0" intLanes="" shape="1085.81,949.29"/>
  <junction id="n_h2_0" type="priority" x="885.49" y="985.00" incLanes="" intLanes="" shape="885.49,985.00"/>
  <junction id="n_h2_1" type="priority" x="1085.81" y="985.00" incLanes="edge_h2_0" intLanes="" shape="1085.81,985.00"/>
  <junction id="n_h3_0" type="priority" x="885.49" y="1020.71" incLanes="" intLanes="" shape="885.49,1020.71"/>
  <junction id="n_h3_1" type="priority" x="1085.81" y="1020.71" incLanes="edge_h3_0" intLanes="" shape="1085.81,1020.71"/>
  <junction id="n_h4_0" type="priority" x="885.49" y="1056.42" incLanes="" intLanes="" shape="885.49,1056.42"/>
  <junction id="n_h4_1" type="priority" x="1085.81" y="1056.42" incLanes="edge_h4_0" intLanes="" shape="1085.81,1056.42"/>
  <junction id="n_v0_0" type="priority" x="885.49" y="913.58" incLanes="" intLanes="" shape="885.49,913.58"/>
  <junction id="n_v0_1" type="priority" x="885.49" y="1056.42" incLanes="edge_v0_0" intLanes="" shape="885.49,1056.42"/>
  <junction id="n_v1_0" type="priority" x="935.57" y="913.58" incLanes="" intLanes="" shape="935.57,913.58"/>
  <junction id="n_v1_1" type="priority" x="935.57" y="1056.42" incLanes="edge_v1_0" intLanes="" shape="935.57,1056.42"/>
  <junction id="n_v2_0" type="priority" x="985.65" y="913.58" incLanes="" intLanes="" shape="985.65,913.58"/>
  <junction id="n_v2_1" type="priority" x="985.65" y="1056.42" incLanes="edge_v2_0" intLanes="" shape="985.65,1056.42"/>
  <junction id="n_v3_0" type="priority" x="1035.73" y="913.58" incLanes="" intLanes="" shape="1035.73,913.58"/>
  <junction id="n_v3_1" type="priority" x="1035.73" y="1056.42" incLanes="edge_v3_0" intLanes="" shape="1035.73,1056.42"/>
  <junction id="n_v4_0" type="priority" x="1085.81" y="913.58" incLanes="" intLanes="" shape="1085.81,913.58"/>
  <junction id="n_v4_1" type="priority" x="1085.81" y="1056.42" incLanes="edge_v4_0" intLanes="" shape="1085.81,1056.42"/>
  <junction id="traj_2_11_s" type="priority" x="1035.81" y="991.16" incLanes="" intLanes="" shape="1035.81,991.16"/>
  <junction id="traj_2_11_e" type="priority" x="983.14" y="999.48" incLanes="" intLanes="" shape="983.14,999.48"/>
  <edge id="traj_2_11" from="traj_2_11_s" to="traj_2_11_e">
    <lane id="traj_2_11_0" index="0" speed="13.89" length="53.32" shape="1035.81,991.16 1034.43,991.38 1033.05,991.59 1031.67,991.81 1030.29,992.02 1028.91,992.24 1027.53,992.46 1026.14,992.67 1024.76,992.88 1023.37,993.10 1021.99,993.31 1020.61,993.53 1019.23,993.74 1017.85,993.96 1016.47,994.17 1015.09,994.39 1013.72,994.61 1012.36,994.82 1011.00,995.04 1009.64,995.26 1008.28,995.48 1006.93,995.70 1005.59,995.91 1004.25,996.14 1002.91,996.36 1001.58,996.58 1000.24,996.80 998.92,997.02 997.59,997.23 996.27,997.45 994.94,997.66 993.62,997.88 992.31,998.09 990.99,998.29 989.68,998.50 988.36,998.70 987.05,998.90 985.75,999.09 984.44,999.28 983.14,999.48"/>
  </edge>
  <junction id="traj_2_9_s" type="priority" x="968.65" y="996.33" incLanes="" intLanes="" shape="968.65,996.33"/>
  <junction id="traj_2_9_e" type="priority" x="1016.11" y="987.51" incLanes="" intLanes="" shape="1016.11,987.51"/>
  <edge id="traj_2_9" from="traj_2_9_s" to="traj_2_9_e">
    <lane id="traj_2_9_0" index="0" speed="13.89" length="48.27" shape="968.65,996.33 969.83,996.11 971.02,995.90 972.21,995.69 973.39,995.47 974.58,995.25 975.78,995.04 976.97,994.82 978.16,994.60 979.36,994.38 980.56,994.16 981.76,993.94 982.96,993.71 984.17,993.49 985.38,993.26 986.59,993.04 987.80,992.82 989.01,992.59 990.23,992.36 991.45,992.14 992.68,991.91 993.90,991.68 995.13,991.45 996.36,991.22 997.59,990.99 998.82,990.76 1000.06,990.53 1001.29,990.30 1002.53,990.07 1003.76,989.84 1005.00,989.60 1006.24,989.37 1007.48,989.14 1008.71,988.90 1009.95,988.67 1011.18,988.43 1012.42,988.20 1013.65,987.97 1014.88,987.74 1016.11,987.51"/>
  </edge>
  <junction id="traj_2_10_s" type="priority" x="939.51" y="1001.36" incLanes="" intLanes="" shape="939.51,1001.36"/>
  <junction id="traj_2_10_e" type="priority" x="986.87" y="992.90" incLanes="" intLanes="" shape="986.87,992.90"/>
  <edge id="traj_2_10" from="traj_2_10_s" to="traj_2_10_e">
    <lane id="traj_2_10_0" index="0" speed="13.89" length="48.11" shape="939.51,1001.36 940.73,1001.15 941.95,1000.95 943.16,1000.75 944.38,1000.54 945.60,1000.34 946.82,1000.13 948.04,999.92 949.25,999.71 950.47,999.50 951.68,999.29 952.90,999.08 954.11,998.87 955.32,998.66 956.52,998.45 957.73,998.23 958.93,998.02 960.13,997.80 961.33,997.59 962.53,997.37 963.73,997.15 964.92,996.93 966.12,996.71 967.31,996.49 968.50,996.27 969.70,996.05 970.90,995.83 972.10,995.60 973.30,995.38 974.51,995.15 975.72,994.93 976.94,994.70 978.16,994.48 979.39,994.25 980.62,994.03 981.86,993.80 983.10,993.58 984.35,993.35 985.61,993.13 986.87,992.90"/>
  </edge>
  <junction id="traj_2_6_s" type="priority" x="1005.41" y="997.78" incLanes="" intLanes="" shape="1005.41,997.78"/>
  <junction id="traj_2_6_e" type="priority" x="967.83" y="1000.69" incLanes="" intLanes="" shape="967.83,1000.69"/>
  <edge id="traj_2_6" from="traj_2_6_s" to="traj_2_6_e">
    <lane id="traj_2_6_0" index="0" speed="13.89" length="37.74" shape="1005.41,997.78 1004.75,997.73 1004.06,997.69 1003.37,997.66 1002.65,997.64 1001.91,997.63 1001.15,997.63 1000.37,997.63 999.58,997.65 998.76,997.67 997.93,997.70 997.08,997.74 996.21,997.78 995.32,997.84 994.41,997.89 993.49,997.96 992.54,998.02 991.59,998.10 990.61,998.17 989.62,998.25 988.62,998.34 987.61,998.43 986.58,998.52 985.54,998.62 984.49,998.72 983.42,998.82 982.35,998.93 981.27,999.04 980.18,999.15 979.09,999.27 977.98,999.39 976.87,999.52 975.76,999.65 974.63,999.79 973.51,999.93 972.38,1000.07 971.25,1000.22 970.11,1000.37 968.97,1000.53 967.83,1000.69"/>
  </edge>
  <junction id="traj_2_8_s" type="priority" x="981.47" y="990.40" incLanes="" intLanes="" shape="981.47,990.40"/>
  <junction id="traj_2_8_e" type="priority" x="1005.61" y="979.93" incLanes="" intLanes="" shape="1005.61,979.93"/>
  <edge id="traj_2_8" from="traj_2_8_s" to="traj_2_8_e">
    <lane id="traj_2_8_0" index="0" speed="13.89" length="26.84" shape="981.47,990.40 982.32,990.23 983.16,990.06 984.00,989.89 984.82,989.72 985.63,989.55 986.42,989.38 987.21,989.21 987.99,989.03 988.75,988.85 989.50,988.67 990.23,988.48 990.96,988.29 991.67,988.09 992.36,987.89 993.04,987.67 993.71,987.46 994.37,987.23 995.01,986.99 995.64,986.75 996.25,986.49 996.86,986.23 997.44,985.95 998.02,985.67 998.58,985.38 999.13,985.08 999.67,984.77 1000.20,984.45 1000.71,984.12 1001.21,983.79 1001.70,983.44 1002.18,983.09 1002.65,982.72 1003.10,982.35 1003.55,981.97 1003.98,981.58 1004.40,981.18 1004.82,980.77 1005.22,980.36 1005.61,979.93"/>
  </edge>
  <junction id="traj_2_7_s" type="priority" x="959.17" y="1003.27" incLanes="" intLanes="" shape="959.17,1003.27"/>
  <junction id="traj_2_7_e" type="priority" x="935.49" y="1006.42" incLanes="" intLanes="" shape="935.49,1006.42"/>
  <edge id="traj_2_7" from="traj_2_7_s" to="traj_2_7_e">
    <lane id="traj_2_7_0" index="0" speed="13.89" length="23.89" shape="959.17,1003.27 957.97,1003.41 956.76,1003.56 955.56,1003.71 954.36,1003.85 953.16,1004.00 951.97,1004.16 950.78,1004.31 949.59,1004.47 948.40,1004.62 947.22,1004.78 946.04,1004.95 944.86,1005.11 943.69,1005.27 942.51,1005.43 941.34,1005.60 940.17,1005.76 939.00,1005.92 937.83,1006.09 936.66,1006.25 935.49,1006.42"/>
  </edge>
  <junction id="traj_2_5_s" type="priority" x="1009.80" y="975.73" incLanes="" intLanes="" shape="1009.80,975.73"/>
  <junction id="traj_2_5_e" type="priority" x="1013.30" y="963.58" incLanes="" intLanes="" shape="1013.30,963.58"/>
  <edge id="traj_2_5" from="traj_2_5_s" to="traj_2_5_e">
    <lane id="traj_2_5_0" index="0" speed="13.89" length="12.71" shape="1009.80,975.73 1010.19,974.97 1010.56,974.18 1010.90,973.38 1011.22,972.55 1011.51,971.71 1011.78,970.85 1012.02,969.97 1012.25,969.08 1012.47,968.18 1012.66,967.27 1012.85,966.35 1013.01,965.43 1013.17,964.51 1013.30,963.58"/>
  </edge>
</net>
