<?xml version="1.0" ?>
<net version="1.16">
  <location netOffset="985.04,986.76" convBoundary="884.12,916.75,1085.95,1056.77" origBoundary="884.12,916.75,1085.95,1056.77" projParameter="!"/>
  <edge id="edge_h0" from="n_h0_0" to="n_h0_1">
    <lane id="edge_h0_0" index="0" speed="13.89" length="201.83" shape="884.12,916.75 1085.95,916.75"/>
  </edge>
  <edge id="edge_h1" from="n_h1_0" to="n_h1_1">
    <lane id="edge_h1_0" index="0" speed="13.89" length="201.83" shape="884.12,951.75 1085.95,951.75"/>
  </edge>
  <edge id="edge_h2" from="n_h2_0" to="n_h2_1">
    <lane id="edge_h2_0" index="0" speed="13.89" length="201.83" shape="884.12,986.76 1085.95,986.76"/>
  </edge>
  <edge id="edge_h3" from="n_h3_0" to="n_h3_1">
    <lane id="edge_h3_0" index="0" speed="13.89" length="201.83" shape="884.12,1021.77 1085.95,1021.77"/>
  </edge>
  <edge id="edge_h4" from="n_h4_0" to="n_h4_1">
    <lane id="edge_h4_0" index="0" speed="13.89" length="201.83" shape="884.12,1056.77 1085.95,1056.77"/>
  </edge>
  <edge id="edge_v0" from="n_v0_0" to="n_v0_1">
    <lane id="edge_v0_0" index="0" speed="13.89" length="140.03" shape="884.12,916.75 884.12,1056.77"/>
  </edge>
  <edge id="edge_v1" from="n_v1_0" to="n_v1_1">
    <lane id="edge_v1_0" index="0" speed="13.89" length="140.03" shape="934.58,916.75 934.58,1056.77"/>
  </edge>
  <edge id="edge_v2" from="n_v2_0" to="n_v2_1">
    <lane id="edge_v2_0" index="0" speed="13.89" length="140.03" shape="985.04,916.75 985.04,1056.77"/>
  </edge>
  <edge id="edge_v3" from="n_v3_0" to="n_v3_1">
    <lane id="edge_v3_0" index="0" speed="13.89" length="140.03" shape="1035.50,916.75 1035.50,1056.77"/>
  </edge>
  <edge id="edge_v4" from="n_v4_0" to="n_v4_1">
    <lane id="edge_v4_0" index="0" speed="13.89" length="140.03" shape="1085.95,916.75 1085.95,1056.77"/>
  </edge>
  <junction id="n_h0_0" type="priority" x="884.12" y="916.75" incLanes="" intLanes="" shape="884.12,916.75"/>
  <junction id="n_h0_1" type="priority" x="1085.95" y="916.75" incLanes="edge_h0_0" intLanes="" shape="1085.95,916.75"/>
  <junction id="n_h1_0" type="priority" x="884.12" y="951.75" incLanes="" intLanes="" shape="884.12,951.75"/>
  <junction id="n_h1_1" type="priority" x="1085.95" y="951.75" incLanes="edge_h1_0" intLanes="" shape="1085.95,951.75"/>
  <junction id="n_h2_0" type="priority" x="884.12" y="986.76" incLanes="" intLanes="" shape="884.12,986.76"/>
  <junction id="n_h2_1" type="priority" x="1085.95" y="986.76" incLanes="edge_h2_0" intLanes="" shape="1085.95,986.76"/>
  <junction id="n_h3_0" type="priority" x="884.12" y="1021.77" incLanes="" intLanes="" shape="884.12,1021.77"/>
  <junction id="n_h3_1" type="priority" x="1085.95" y="1021.77" incLanes="edge_h3_0" intLanes="" shape="1085.95,1021.77"/>
  <junction id="n_h4_0" type="priority" x="884.12" y="1056.77" incLanes="" intLanes="" shape="884.12,1056.77"/>
  <junction id="n_h4_1" type="priority" x="1085.95" y="1056.77" incLanes="edge_h4_0" intLanes="" shape="1085.95,1056.77"/>
  <junction id="n_v0_0" type="priority" x="884.12" y="916.75" incLanes="" intLanes="" shape="884.12,916.75"/>
  <junction id="n_v0_1" type="priority" x="884.12" y="1056.77" incLanes="edge_v0_0" intLanes="" shape="884.12,1056.77"/>
  <junction id="n_v1_0" type="priority" x="934.58" y="916.75" incLanes="" intLanes="" shape="934.58,916.75"/>
  <junction id="n_v1_1" type="priority" x="934.58" y="1056.77" incLanes="edge_v1_0" intLanes="" shape="934.58,1056.77"/>
  <junction id="n_v2_0" type="priority" x="985.04" y="916.75" incLanes="" intLanes="" shape="985.04,916.75"/>
  <junction id="n_v2_1" type="priority" x="985.04" y="1056.77" incLanes="edge_v2_0" intLanes="" shape="985.04,1056.77"/>
  <junction id="n_v3_0" type="priority" x="1035.50" y="916.75" incLanes="" intLanes="" shape="1035.50,916.75"/>
  <junction id="n_v3_1" type="priority" x="1035.50" y="1056.77" incLanes="edge_v3_0" intLanes="" shape="1035.50,1056.77"/>
  <junction id="n_v4_0" type="priority" x="1085.95" y="916.75" incLanes="" intLanes="" shape="1085.95,916.75"/>
  <junction id="n_v4_1" type="priority" x="1085.95" y="1056.77" incLanes="edge_v4_0" intLanes="" shape="1085.95,1056.77"/>
  <junction id="traj_10_12_s" type="priority" x="974.68" y="998.67" incLanes="" intLanes="" shape="974.68,998.67"/>
  <junction id="traj_10_12_e" type="priority" x="939.74" y="1004.98" incLanes="" intLanes="" shape="939.74,1004.98"/>
  <edge id="traj_10_12" from="traj_10_12_s" to="traj_10_12_e">
    <lane id="traj_10_12_0" index="0" speed="13.89" length="35.51" shape="974.68,998.67 973.77,998.84 972.87,999.01 971.96,999.18 971.04,999.35 970.13,999.53 969.21,999.70 968.29,999.87 967.38,1000.05 966.46,1000.22 965.54,1000.39 964.63,1000.56 963.71,1000.73 962.80,1000.90 961.89,1001.07 960.99,1001.23 960.08,1001.40 959.18,1001.56 958.28,1001.73 957.38,1001.89 956.49,1002.05 955.60,1002.21 954.70,1002.37 953.81,1002.53 952.92,1002.69 952.04,1002.85 951.15,1003.01 950.27,1003.17 949.38,1003.32 948.50,1003.48 947.62,1003.63 946.74,1003.79 945.86,1003.94 944.98,1004.09 944.11,1004.24 943.23,1004.39 942.36,1004.54 941.48,1004.69 940.61,1004.83 939.74,1004.98"/>
  </edge>
  <junction id="traj_10_17_s" type="priority" x="934.19" y="999.69" incLanes="" intLanes="" shape="934.19,999.69"/>
  <junction id="traj_10_17_e" type="priority" x="966.72" y="992.89" incLanes="" intLanes="" shape="966.72,992.89"/>
  <edge id="traj_10_17" from="traj_10_17_s" to="traj_10_17_e">
    <lane id="traj_10_17_0" index="0" speed="13.89" length="33.24" shape="934.19,999.69 935.33,999.46 936.47,999.23 937.61,999.00 938.75,998.78 939.88,998.56 941.00,998.34 942.12,998.12 943.22,997.91 944.31,997.70 945.38,997.49 946.44,997.29 947.48,997.09 948.50,996.89 949.50,996.69 950.48,996.50 951.43,996.31 952.37,996.12 953.28,995.93 954.16,995.75 955.02,995.57 955.86,995.39 956.67,995.22 957.45,995.04 958.21,994.88 958.95,994.71 959.66,994.55 960.35,994.39 961.01,994.24 961.64,994.10 962.25,993.95 962.84,993.82 963.40,993.68 963.95,993.55 964.46,993.43 964.96,993.31 965.43,993.20 965.88,993.09 966.31,992.99 966.72,992.89"/>
  </edge>
  <junction id="traj_10_4_s" type="priority" x="963.06" y="1002.00" incLanes="" intLanes="" shape="963.06,1002.00"/>
  <junction id="traj_10_4_e" type="priority" x="935.39" y="1006.34" incLanes="" intLanes="" shape="935.39,1006.34"/>
  <edge id="traj_10_4" from="traj_10_4_s" to="traj_10_4_e">
    <lane id="traj_10_4_0" index="0" speed="13.89" length="28.01" shape="963.06,1002.00 962.18,1002.13 961.30,1002.26 960.43,1002.39 959.55,1002.53 958.68,1002.66 957.81,1002.79 956.94,1002.93 956.07,1003.06 955.21,1003.20 954.34,1003.34 953.47,1003.47 952.61,1003.61 951.74,1003.75 950.88,1003.89 950.01,1004.03 949.15,1004.17 948.29,1004.31 947.43,1004.45 946.56,1004.58 945.70,1004.72 944.84,1004.86 943.98,1005.00 943.12,1005.14 942.26,1005.27 941.40,1005.41 940.54,1005.55 939.68,1005.68 938.82,1005.81 937.97,1005.95 937.11,1006.08 936.25,1006.21 935.39,1006.34"/>
  </edge>
  <junction id="traj_10_11_s" type="priority" x="1009.48" y="988.66" incLanes="" intLanes="" shape="1009.48,988.66"/>
  <junction id="traj_10_11_e" type="priority" x="1034.56" y="984.20" incLanes="" intLanes="" shape="1034.56,984.20"/>
  <edge id="traj_10_11" from="traj_10_11_s" to="traj_10_11_e">
    <lane id="traj_10_11_0" index="0" speed="13.89" length="25.47" shape="1009.48,988.66 1010.47,988.47 1011.46,988.29 1012.44,988.12 1013.41,987.95 1014.38,987.77 1015.34,987.61 1016.29,987.44 1017.23,987.28 1018.16,987.12 1019.09,986.96 1020.01,986.80 1020.91,986.65 1021.81,986.49 1022.70,986.34 1023.58,986.18 1024.45,986.03 1025.32,985.88 1026.18,985.73 1027.03,985.57 1027.88,985.42 1028.72,985.27 1029.56,985.12 1030.40,984.96 1031.23,984.81 1032.06,984.66 1032.89,984.50 1033.73,984.35 1034.56,984.20"/>
  </edge>
  <junction id="traj_10_18_s" type="priority" x="1035.95" y="990.98" incLanes="" intLanes="" shape="1035.95,990.98"/>
  <junction id="traj_10_18_e" type="priority" x="1015.66" y="996.16" incLanes="" intLanes="" shape="1015.66,996.16"/>
  <edge id="traj_10_18" from="traj_10_18_s" to="traj_10_18_e">
    <lane id="traj_10_18_0" index="0" speed="13.89" length="20.95" shape="1035.95,990.98 1035.27,991.13 1034.59,991.28 1033.91,991.43 1033.23,991.59 1032.56,991.74 1031.90,991.89 1031.24,992.04 1030.59,992.18 1029.94,992.33 1029.31,992.47 1028.68,992.62 1028.06,992.76 1027.44,992.90 1026.84,993.04 1026.24,993.18 1025.64,993.33 1025.06,993.47 1024.48,993.61 1023.90,993.75 1023.33,993.90 1022.76,994.05 1022.20,994.19 1021.63,994.34 1021.08,994.50 1020.52,994.65 1019.97,994.80 1019.43,994.96 1018.88,995.12 1018.34,995.29 1017.80,995.46 1017.26,995.62 1016.73,995.80 1016.19,995.98 1015.66,996.16"/>
  </edge>
  <junction id="traj_10_8_s" type="priority" x="985.14" y="1006.77" incLanes="" intLanes="" shape="985.14,1006.77"/>
  <junction id="traj_10_8_e" type="priority" x="966.48" y="1002.73" incLanes="" intLanes="" shape="966.48,1002.73"/>
  <edge id="traj_10_8" from="traj_10_8_s" to="traj_10_8_e">
    <lane id="traj_10_8_0" index="0" speed="13.89" length="19.53" shape="985.14,1006.77 984.93,1006.60 984.71,1006.42 984.48,1006.24 984.23,1006.05 983.97,1005.87 983.69,1005.68 983.40,1005.50 983.10,1005.31 982.78,1005.13 982.45,1004.96 982.10,1004.78 981.74,1004.62 981.37,1004.45 980.98,1004.29 980.58,1004.14 980.16,1004.00 979.73,1003.87 979.28,1003.74 978.82,1003.62 978.34,1003.50 977.85,1003.40 977.34,1003.30 976.81,1003.21 976.27,1003.13 975.72,1003.06 975.15,1003.00 974.56,1002.94 973.96,1002.89 973.35,1002.85 972.72,1002.81 972.08,1002.78 971.43,1002.76 970.76,1002.74 970.08,1002.73 969.38,1002.72 968.68,1002.71 967.96,1002.71 967.23,1002.72 966.48,1002.73"/>
  </edge>
  <junction id="traj_10_2_s" type="priority" x="994.70" y="997.63" incLanes="" intLanes="" shape="994.70,997.63"/>
  <junction id="traj_10_2_e" type="priority" x="1005.45" y="982.90" incLanes="" intLanes="" shape="1005.45,982.90"/>
  <edge id="traj_10_2" from="traj_10_2_s" to="traj_10_2_e">
    <lane id="traj_10_2_0" index="0" speed="13.89" length="18.29" shape="994.70,997.63 994.82,997.34 994.96,997.04 995.11,996.74 995.26,996.42 995.43,996.10 995.61,995.77 995.81,995.44 996.01,995.09 996.23,994.74 996.47,994.38 996.71,994.02 996.96,993.65 997.23,993.27 997.50,992.89 997.79,992.50 998.08,992.12 998.38,991.72 998.69,991.32 999.00,990.92 999.32,990.52 999.64,990.12 999.97,989.71 1000.30,989.31 1000.63,988.90 1000.96,988.50 1001.30,988.09 1001.63,987.69 1001.97,987.29 1002.30,986.88 1002.63,986.49 1002.96,986.09 1003.28,985.69 1003.61,985.29 1003.92,984.89 1004.24,984.50 1004.55,984.10 1004.86,983.70 1005.15,983.30 1005.45,982.90"/>
  </edge>
  <junction id="traj_10_3_s" type="priority" x="990.41" y="1003.89" incLanes="" intLanes="" shape="990.41,1003.89"/>
  <junction id="traj_10_3_e" type="priority" x="999.82" y="990.09" incLanes="" intLanes="" shape="999.82,990.09"/>
  <edge id="traj_10_3" from="traj_10_3_s" to="traj_10_3_e">
    <lane id="traj_10_3_0" index="0" speed="13.89" length="17.43" shape="990.41,1003.89 990.39,1003.46 990.39,1003.02 990.41,1002.57 990.46,1002.11 990.52,1001.66 990.60,1001.20 990.71,1000.76 990.83,1000.32 990.97,999.89 991.13,999.47 991.30,999.06 991.49,998.66 991.69,998.28 991.90,997.91 992.12,997.56 992.36,997.21 992.60,996.88 992.85,996.55 993.11,996.23 993.38,995.92 993.66,995.62 993.95,995.32 994.24,995.02 994.54,994.72 994.86,994.43 995.18,994.14 995.51,993.84 995.85,993.55 996.19,993.25 996.54,992.96 996.90,992.65 997.26,992.35 997.62,992.04 997.99,991.73 998.36,991.41 998.72,991.09 999.09,990.76 999.46,990.42 999.82,990.09"/>
  </edge>
  <junction id="traj_10_6_s" type="priority" x="1005.61" y="997.67" incLanes="" intLanes="" shape="1005.61,997.67"/>
  <junction id="traj_10_6_e" type="priority" x="989.58" y="1000.12" incLanes="" intLanes="" shape="989.58,1000.12"/>
  <edge id="traj_10_6" from="traj_10_6_s" to="traj_10_6_e">
    <lane id="traj_10_6_0" index="0" speed="13.89" length="16.22" shape="1005.61,997.67 1005.36,997.69 1005.10,997.72 1004.85,997.76 1004.59,997.79 1004.33,997.83 1004.06,997.87 1003.80,997.91 1003.52,997.95 1003.25,997.99 1002.97,998.04 1002.68,998.09 1002.38,998.14 1002.08,998.20 1001.77,998.26 1001.44,998.32 1001.11,998.38 1000.77,998.45 1000.41,998.51 1000.04,998.58 999.66,998.66 999.26,998.73 998.85,998.81 998.42,998.89 997.98,998.97 997.52,999.05 997.04,999.13 996.56,999.21 996.05,999.29 995.53,999.38 995.00,999.46 994.45,999.53 993.89,999.61 993.32,999.69 992.73,999.76 992.12,999.84 991.51,999.91 990.88,999.98 990.24,1000.05 989.58,1000.12"/>
  </edge>
  <junction id="traj_10_5_s" type="priority" x="1004.80" y="980.32" incLanes="" intLanes="" shape="1004.80,980.32"/>
  <junction id="traj_10_5_e" type="priority" x="1011.57" y="966.75" incLanes="" intLanes="" shape="1011.57,966.75"/>
  <edge id="traj_10_5" from="traj_10_5_s" to="traj_10_5_e">
    <lane id="traj_10_5_0" index="0" speed="13.89" length="16.17" shape="1004.80,980.32 1005.04,980.23 1005.28,980.12 1005.53,980.00 1005.77,979.87 1006.02,979.73 1006.27,979.58 1006.51,979.42 1006.76,979.25 1007.00,979.07 1007.24,978.88 1007.47,978.67 1007.70,978.47 1007.93,978.24 1008.16,978.01 1008.38,977.77 1008.60,977.51 1008.81,977.24 1009.02,976.96 1009.23,976.67 1009.43,976.36 1009.62,976.03 1009.82,975.69 1010.00,975.33 1010.18,974.95 1010.35,974.55 1010.51,974.14 1010.66,973.70 1010.81,973.24 1010.94,972.76 1011.06,972.25 1011.17,971.72 1011.26,971.17 1011.35,970.60 1011.42,970.00 1011.47,969.38 1011.51,968.75 1011.54,968.10 1011.56,967.43 1011.57,966.75"/>
  </edge>
  <junction id="traj_10_7_s" type="priority" x="1015.16" y="999.67" incLanes="" intLanes="" shape="1015.16,999.67"/>
  <junction id="traj_10_7_e" type="priority" x="999.33" y="999.37" incLanes="" intLanes="" shape="999.33,999.37"/>
  <edge id="traj_10_7" from="traj_10_7_s" to="traj_10_7_e">
    <lane id="traj_10_7_0" index="0" speed="13.89" length="16.17" shape="1015.16,999.67 1014.82,999.50 1014.48,999.33 1014.14,999.18 1013.80,999.04 1013.47,998.91 1013.14,998.79 1012.81,998.69 1012.48,998.59 1012.15,998.51 1011.83,998.44 1011.51,998.37 1011.18,998.32 1010.86,998.27 1010.53,998.23 1010.20,998.19 1009.86,998.17 1009.52,998.15 1009.17,998.14 1008.82,998.14 1008.45,998.14 1008.08,998.15 1007.69,998.17 1007.30,998.20 1006.90,998.23 1006.48,998.27 1006.06,998.32 1005.62,998.37 1005.17,998.43 1004.71,998.49 1004.23,998.57 1003.74,998.64 1003.24,998.72 1002.72,998.81 1002.19,998.90 1001.65,998.99 1001.09,999.08 1000.52,999.18 999.93,999.27 999.33,999.37"/>
  </edge>
  <junction id="traj_10_15_s" type="priority" x="963.47" y="997.16" incLanes="" intLanes="" shape="963.47,997.16"/>
  <junction id="traj_10_15_e" type="priority" x="978.62" y="994.43" incLanes="" intLanes="" shape="978.62,994.43"/>
  <edge id="traj_10_15" from="traj_10_15_s" to="traj_10_15_e">
    <lane id="traj_10_15_0" index="0" speed="13.89" length="15.40" shape="963.47,997.16 964.46,996.99 965.41,996.82 966.33,996.65 967.22,996.50 968.07,996.34 968.88,996.19 969.66,996.05 970.39,995.92 971.09,995.79 971.74,995.67 972.35,995.56 972.92,995.46 973.46,995.37 973.95,995.28 974.40,995.19 974.82,995.12 975.20,995.05 975.55,994.99 975.87,994.93 976.16,994.87 976.42,994.83 976.66,994.78 976.87,994.74 977.07,994.71 977.24,994.68 977.40,994.65 977.54,994.62 977.67,994.60 977.78,994.58 977.89,994.56 977.99,994.54 978.08,994.53 978.16,994.51 978.24,994.50 978.32,994.48 978.39,994.47 978.47,994.45 978.54,994.44 978.62,994.43"/>
  </edge>
  <junction id="traj_10_19_s" type="priority" x="934.12" y="1000.39" incLanes="" intLanes="" shape="934.12,1000.39"/>
  <junction id="traj_10_19_e" type="priority" x="948.05" y="997.43" incLanes="" intLanes="" shape="948.05,997.43"/>
  <edge id="traj_10_19" from="traj_10_19_s" to="traj_10_19_e">
    <lane id="traj_10_19_0" index="0" speed="13.89" length="14.24" shape="934.12,1000.39 935.17,1000.16 936.23,999.94 937.28,999.72 938.33,999.49 939.37,999.27 940.39,999.05 941.41,998.84 942.41,998.62 943.39,998.41 944.36,998.21 945.31,998.00 946.25,997.81 947.16,997.61 948.05,997.43"/>
  </edge>
</net>
