<?xml version="1.0" ?>
<net version="1.16">
  <location netOffset="985.22,988.42" convBoundary="885.08,914.02,1085.37,1062.82" origBoundary="885.08,914.02,1085.37,1062.82" projParameter="!"/>
  <edge id="edge_h0" from="n_h0_0" to="n_h0_1">
    <lane id="edge_h0_0" index="0" speed="13.89" length="200.29" shape="885.08,914.02 1085.37,914.02"/>
  </edge>
  <edge id="edge_h1" from="n_h1_0" to="n_h1_1">
    <lane id="edge_h1_0" index="0" speed="13.89" length="200.29" shape="885.08,951.22 1085.37,951.22"/>
  </edge>
  <edge id="edge_h2" from="n_h2_0" to="n_h2_1">
    <lane id="edge_h2_0" index="0" speed="13.89" length="200.29" shape="885.08,988.42 1085.37,988.42"/>
  </edge>
  <edge id="edge_h3" from="n_h3_0" to="n_h3_1">
    <lane id="edge_h3_0" index="0" speed="13.89" length="200.29" shape="885.08,1025.62 1085.37,1025.62"/>
  </edge>
  <edge id="edge_h4" from="n_h4_0" to="n_h4_1">
    <lane id="edge_h4_0" index="0" speed="13.89" length="200.29" shape="885.08,1062.82 1085.37,1062.82"/>
  </edge>
  <edge id="edge_v0" from="n_v0_0" to="n_v0_1">
    <lane id="edge_v0_0" index="0" speed="13.89" length="148.79" shape="885.08,914.02 885.08,1062.82"/>
  </edge>
  <edge id="edge_v1" from="n_v1_0" to="n_v1_1">
    <lane id="edge_v1_0" index="0" speed="13.89" length="148.79" shape="935.15,914.02 935.15,1062.82"/>
  </edge>
  <edge id="edge_v2" from="n_v2_0" to="n_v2_1">
    <lane id="edge_v2_0" index="0" speed="13.89" length="148.79" shape="985.22,914.02 985.22,1062.82"/>
  </edge>
  <edge id="edge_v3" from="n_v3_0" to="n_v3_1">
    <lane id="edge_v3_0" index="0" speed="13.89" length="148.79" shape="1035.29,914.02 1035.29,1062.82"/>
  </edge>
  <edge id="edge_v4" from="n_v4_0" to="n_v4_1">
    <lane id="edge_v4_0" index="0" speed="13.89" length="148.79" shape="1085.37,914.02 1085.37,1062.82"/>
  </edge>
  <junction id="n_h0_0" type="priority" x="885.08" y="914.02" incLanes="" intLanes="" shape="885.08,914.02"/>
  <junction id="n_h0_1" type="priority" x="1085.37" y="914.02" incLanes="edge_h0_0" intLanes="" shape="1085.37,914.02"/>
  <junction id="n_h1_0" type="priority" x="885.08" y="951.22" incLanes="" intLanes="" shape="885.08,951.22"/>
  <junction id="n_h1_1" type="priority" x="1085.37" y="951.22" incLanes="edge_h1_0" intLanes="" shape="1085.37,951.22"/>
  <junction id="n_h2_0" type="priority" x="885.08" y="988.42" incLanes="" intLanes="" shape="885.08,988.42"/>
  <junction id="n_h2_1" type="priority" x="1085.37" y="988.42" incLanes="edge_h2_0" intLanes="" shape="1085.37,988.42"/>
  <junction id="n_h3_0" type="priority" x="885.08" y="1025.62" incLanes="" intLanes="" shape="885.08,1025.62"/>
  <junction id="n_h3_1" type="priority" x="1085.37" y="1025.62" incLanes="edge_h3_0" intLanes="" shape="1085.37,1025.62"/>
  <junction id="n_h4_0" type="priority" x="885.08" y="1062.82" incLanes="" intLanes="" shape="885.08,1062.82"/>
  <junction id="n_h4_1" type="priority" x="1085.37" y="1062.82" incLanes="edge_h4_0" intLanes="" shape="1085.37,1062.82"/>
  <junction id="n_v0_0" type="priority" x="885.08" y="914.02" incLanes="" intLanes="" shape="885.08,914.02"/>
  <junction id="n_v0_1" type="priority" x="885.08" y="1062.82" incLanes="edge_v0_0" intLanes="" shape="885.08,1062.82"/>
  <junction id="n_v1_0" type="priority" x="935.15" y="914.02" incLanes="" intLanes="" shape="935.15,914.02"/>
  <junction id="n_v1_1" type="priority" x="935.15" y="1062.82" incLanes="edge_v1_0" intLanes="" shape="935.15,1062.82"/>
  <junction id="n_v2_0" type="priority" x="985.22" y="914.02" incLanes="" intLanes="" shape="985.22,914.02"/>
  <junction id="n_v2_1" type="priority" x="985.22" y="1062.82" incLanes="edge_v2_0" intLanes="" shape="985.22,1062.82"/>
  <junction id="n_v3_0" type="priority" x="1035.29" y="914.02" incLanes="" intLanes="" shape="1035.29,914.02"/>
  <junction id="n_v3_1" type="priority" x="1035.29" y="1062.82" incLanes="edge_v3_0" intLanes="" shape="1035.29,1062.82"/>
  <junction id="n_v4_0" type="priority" x="1085.37" y="914.02" incLanes="" intLanes="" shape="1085.37,914.02"/>
  <junction id="n_v4_1" type="priority" x="1085.37" y="1062.82" incLanes="edge_v4_0" intLanes="" shape="1085.37,1062.82"/>
  <junction id="traj_1_10_s" type="priority" x="976.69" y="999.12" incLanes="" intLanes="" shape="976.69,999.12"/>
  <junction id="traj_1_10_e" type="priority" x="945.33" y="1004.64" incLanes="" intLanes="" shape="945.33,1004.64"/>
  <edge id="traj_1_10" from="traj_1_10_s" to="traj_1_10_e">
    <lane id="traj_1_10_0" index="0" speed="13.89" length="31.84" shape="976.69,999.12 975.38,999.35 974.08,999.58 972.78,999.81 971.49,1000.04 970.20,1000.27 968.92,1000.50 967.64,1000.72 966.37,1000.95 965.10,1001.17 963.84,1001.40 962.58,1001.62 961.33,1001.84 960.08,1002.07 958.84,1002.28 957.60,1002.50 956.37,1002.72 955.13,1002.94 953.91,1003.15 952.68,1003.37 951.45,1003.58 950.23,1003.79 949.00,1004.01 947.78,1004.22 946.55,1004.43 945.33,1004.64"/>
  </edge>
  <junction id="traj_1_12_s" type="priority" x="1035.37" y="988.26" incLanes="" intLanes="" shape="1035.37,988.26"/>
  <junction id="traj_1_12_e" type="priority" x="1004.78" y="993.71" incLanes="" intLanes="" shape="1004.78,993.71"/>
  <edge id="traj_1_12" from="traj_1_12_s" to="traj_1_12_e">
    <lane id="traj_1_12_0" index="0" speed="13.89" length="31.07" shape="1035.37,988.26 1034.16,988.47 1032.94,988.68 1031.73,988.88 1030.52,989.09 1029.30,989.30 1028.08,989.51 1026.87,989.73 1025.65,989.94 1024.43,990.15 1023.21,990.37 1021.99,990.59 1020.76,990.80 1019.54,991.02 1018.32,991.24 1017.09,991.46 1015.86,991.68 1014.63,991.90 1013.40,992.12 1012.17,992.34 1010.94,992.57 1009.71,992.79 1008.48,993.02 1007.24,993.25 1006.01,993.48 1004.78,993.71"/>
  </edge>
  <junction id="traj_1_2_s" type="priority" x="959.90" y="1000.91" incLanes="" intLanes="" shape="959.90,1000.91"/>
  <junction id="traj_1_2_e" type="priority" x="935.08" y="1006.95" incLanes="" intLanes="" shape="935.08,1006.95"/>
  <edge id="traj_1_2" from="traj_1_2_s" to="traj_1_2_e">
    <lane id="traj_1_2_0" index="0" speed="13.89" length="25.55" shape="959.90,1000.91 958.59,1001.31 957.27,1001.71 955.93,1002.09 954.58,1002.46 953.22,1002.82 951.84,1003.18 950.47,1003.52 949.08,1003.86 947.69,1004.19 946.29,1004.52 944.90,1004.84 943.50,1005.15 942.10,1005.46 940.69,1005.76 939.29,1006.07 937.88,1006.36 936.48,1006.66 935.08,1006.95"/>
  </edge>
</net>
