<?xml version="1.0" ?>
<net version="1.16">
  <location netOffset="984.19,990.88" convBoundary="883.95,915.63,1084.43,1066.13" origBoundary="883.95,915.63,1084.43,1066.13" projParameter="!"/>
  <edge id="edge_h0" from="n_h0_0" to="n_h0_1">
    <lane id="edge_h0_0" index="0" speed="13.89" length="200.48" shape="883.95,915.63 1084.43,915.63"/>
  </edge>
  <edge id="edge_h1" from="n_h1_0" to="n_h1_1">
    <lane id="edge_h1_0" index="0" speed="13.89" length="200.48" shape="883.95,953.25 1084.43,953.25"/>
  </edge>
  <edge id="edge_h2" from="n_h2_0" to="n_h2_1">
    <lane id="edge_h2_0" index="0" speed="13.89" length="200.48" shape="883.95,990.88 1084.43,990.88"/>
  </edge>
  <edge id="edge_h3" from="n_h3_0" to="n_h3_1">
    <lane id="edge_h3_0" index="0" speed="13.89" length="200.48" shape="883.95,1028.50 1084.43,1028.50"/>
  </edge>
  <edge id="edge_h4" from="n_h4_0" to="n_h4_1">
    <lane id="edge_h4_0" index="0" speed="13.89" length="200.48" shape="883.95,1066.13 1084.43,1066.13"/>
  </edge>
  <edge id="edge_v0" from="n_v0_0" to="n_v0_1">
    <lane id="edge_v0_0" index="0" speed="13.89" length="150.50" shape="883.95,915.63 883.95,1066.13"/>
  </edge>
  <edge id="edge_v1" from="n_v1_0" to="n_v1_1">
    <lane id="edge_v1_0" index="0" speed="13.89" length="150.50" shape="934.07,915.63 934.07,1066.13"/>
  </edge>
  <edge id="edge_v2" from="n_v2_0" to="n_v2_1">
    <lane id="edge_v2_0" index="0" speed="13.89" length="150.50" shape="984.19,915.63 984.19,1066.13"/>
  </edge>
  <edge id="edge_v3" from="n_v3_0" to="n_v3_1">
    <lane id="edge_v3_0" index="0" speed="13.89" length="150.50" shape="1034.31,915.63 1034.31,1066.13"/>
  </edge>
  <edge id="edge_v4" from="n_v4_0" to="n_v4_1">
    <lane id="edge_v4_0" index="0" speed="13.89" length="150.50" shape="1084.43,915.63 1084.43,1066.13"/>
  </edge>
  <junction id="n_h0_0" type="priority" x="883.95" y="915.63" incLanes="" intLanes="" shape="883.95,915.63"/>
  <junction id="n_h0_1" type="priority" x="1084.43" y="915.63" incLanes="edge_h0_0" intLanes="" shape="1084.43,915.63"/>
  <junction id="n_h1_0" type="priority" x="883.95" y="953.25" incLanes="" intLanes="" shape="883.95,953.25"/>
  <junction id="n_h1_1" type="priority" x="1084.43" y="953.25" incLanes="edge_h1_0" intLanes="" shape="1084.43,953.25"/>
  <junction id="n_h2_0" type="priority" x="883.95" y="990.88" incLanes="" intLanes="" shape="883.95,990.88"/>
  <junction id="n_h2_1" type="priority" x="1084.43" y="990.88" incLanes="edge_h2_0" intLanes="" shape="1084.43,990.88"/>
  <junction id="n_h3_0" type="priority" x="883.95" y="1028.50" incLanes="" intLanes="" shape="883.95,1028.50"/>
  <junction id="n_h3_1" type="priority" x="1084.43" y="1028.50" incLanes="edge_h3_0" intLanes="" shape="1084.43,1028.50"/>
  <junction id="n_h4_0" type="priority" x="883.95" y="1066.13" incLanes="" intLanes="" shape="883.95,1066.13"/>
  <junction id="n_h4_1" type="priority" x="1084.43" y="1066.13" incLanes="edge_h4_0" intLanes="" shape="1084.43,1066.13"/>
  <junction id="n_v0_0" type="priority" x="883.95" y="915.63" incLanes="" intLanes="" shape="883.95,915.63"/>
  <junction id="n_v0_1" type="priority" x="883.95" y="1066.13" incLanes="edge_v0_0" intLanes="" shape="883.95,1066.13"/>
  <junction id="n_v1_0" type="priority" x="934.07" y="915.63" incLanes="" intLanes="" shape="934.07,915.63"/>
  <junction id="n_v1_1" type="priority" x="934.07" y="1066.13" incLanes="edge_v1_0" intLanes="" shape="934.07,1066.13"/>
  <junction id="n_v2_0" type="priority" x="984.19" y="915.63" incLanes="" intLanes="" shape="984.19,915.63"/>
  <junction id="n_v2_1" type="priority" x="984.19" y="1066.13" incLanes="edge_v2_0" intLanes="" shape="984.19,1066.13"/>
  <junction id="n_v3_0" type="priority" x="1034.31" y="915.63" incLanes="" intLanes="" shape="1034.31,915.63"/>
  <junction id="n_v3_1" type="priority" x="1034.31" y="1066.13" incLanes="edge_v3_0" intLanes="" shape="1034.31,1066.13"/>
  <junction id="n_v4_0" type="priority" x="1084.43" y="915.63" incLanes="" intLanes="" shape="1084.43,915.63"/>
  <junction id="n_v4_1" type="priority" x="1084.43" y="1066.13" incLanes="edge_v4_0" intLanes="" shape="1084.43,1066.13"/>
  <junction id="traj_4_10_s" type="priority" x="978.63" y="1000.73" incLanes="" intLanes="" shape="978.63,1000.73"/>
  <junction id="traj_4_10_e" type="priority" x="935.27" y="1006.22" incLanes="" intLanes="" shape="935.27,1006.22"/>
  <edge id="traj_4_10" from="traj_4_10_s" to="traj_4_10_e">
    <lane id="traj_4_10_0" index="0" speed="13.89" length="43.71" shape="978.63,1000.73 977.52,1000.87 976.40,1001.01 975.28,1001.14 974.15,1001.28 973.01,1001.41 971.87,1001.55 970.73,1001.68 969.58,1001.81 968.43,1001.95 967.28,1002.08 966.14,1002.21 964.99,1002.34 963.84,1002.47 962.69,1002.60 961.55,1002.73 960.40,1002.87 959.25,1003.00 958.11,1003.13 956.97,1003.27 955.82,1003.40 954.68,1003.54 953.54,1003.69 952.39,1003.83 951.25,1003.98 950.11,1004.13 948.97,1004.28 947.83,1004.43 946.68,1004.59 945.54,1004.75 944.40,1004.91 943.26,1005.07 942.12,1005.23 940.98,1005.40 939.84,1005.56 938.69,1005.73 937.55,1005.89 936.41,1006.06 935.27,1006.22"/>
  </edge>
  <junction id="traj_4_11_s" type="priority" x="988.51" y="996.64" incLanes="" intLanes="" shape="988.51,996.64"/>
  <junction id="traj_4_11_e" type="priority" x="949.49" y="1003.61" incLanes="" intLanes="" shape="949.49,1003.61"/>
  <edge id="traj_4_11" from="traj_4_11_s" to="traj_4_11_e">
    <lane id="traj_4_11_0" index="0" speed="13.89" length="39.64" shape="988.51,996.64 987.55,996.82 986.60,997.00 985.63,997.18 984.67,997.36 983.70,997.54 982.73,997.72 981.75,997.90 980.77,998.08 979.78,998.26 978.79,998.44 977.80,998.62 976.80,998.81 975.80,998.99 974.79,999.17 973.78,999.35 972.77,999.53 971.75,999.71 970.74,999.89 969.72,1000.07 968.69,1000.25 967.67,1000.43 966.65,1000.60 965.62,1000.78 964.60,1000.96 963.58,1001.13 962.56,1001.31 961.54,1001.49 960.53,1001.66 959.52,1001.84 958.51,1002.02 957.50,1002.20 956.50,1002.37 955.49,1002.55 954.49,1002.73 953.49,1002.90 952.49,1003.08 951.49,1003.26 950.49,1003.43 949.49,1003.61"/>
  </edge>
  <junction id="traj_4_16_s" type="priority" x="937.45" y="1001.14" incLanes="" intLanes="" shape="937.45,1001.14"/>
  <junction id="traj_4_16_e" type="priority" x="970.34" y="995.45" incLanes="" intLanes="" shape="970.34,995.45"/>
  <edge id="traj_4_16" from="traj_4_16_s" to="traj_4_16_e">
    <lane id="traj_4_16_0" index="0" speed="13.89" length="33.38" shape="937.45,1001.14 938.53,1000.95 939.62,1000.77 940.70,1000.58 941.78,1000.39 942.87,1000.21 943.95,1000.02 945.04,999.84 946.12,999.66 947.21,999.48 948.30,999.29 949.38,999.11 950.47,998.93 951.56,998.74 952.65,998.56 953.75,998.37 954.84,998.19 955.94,998.00 957.03,997.81 958.13,997.62 959.23,997.43 960.33,997.23 961.44,997.04 962.54,996.85 963.65,996.65 964.76,996.45 965.87,996.25 966.98,996.05 968.10,995.85 969.22,995.65 970.34,995.45"/>
  </edge>
  <junction id="traj_4_9_s" type="priority" x="966.64" y="1000.57" incLanes="" intLanes="" shape="966.64,1000.57"/>
  <junction id="traj_4_9_e" type="priority" x="935.87" y="1006.15" incLanes="" intLanes="" shape="935.87,1006.15"/>
  <edge id="traj_4_9" from="traj_4_9_s" to="traj_4_9_e">
    <lane id="traj_4_9_0" index="0" speed="13.89" length="31.27" shape="966.64,1000.57 965.41,1000.80 964.17,1001.02 962.94,1001.25 961.71,1001.47 960.47,1001.70 959.24,1001.92 958.01,1002.14 956.78,1002.36 955.55,1002.58 954.32,1002.80 953.09,1003.02 951.86,1003.24 950.64,1003.47 949.41,1003.69 948.18,1003.91 946.95,1004.13 945.72,1004.36 944.49,1004.58 943.26,1004.80 942.03,1005.03 940.79,1005.25 939.56,1005.48 938.33,1005.70 937.10,1005.92 935.87,1006.15"/>
  </edge>
  <junction id="traj_4_15_s" type="priority" x="1020.59" y="994.53" incLanes="" intLanes="" shape="1020.59,994.53"/>
  <junction id="traj_4_15_e" type="priority" x="1000.59" y="1012.19" incLanes="" intLanes="" shape="1000.59,1012.19"/>
  <edge id="traj_4_15" from="traj_4_15_s" to="traj_4_15_e">
    <lane id="traj_4_15_0" index="0" speed="13.89" length="29.67" shape="1020.59,994.53 1019.69,994.70 1018.81,994.87 1017.94,995.05 1017.09,995.24 1016.25,995.43 1015.43,995.63 1014.62,995.84 1013.83,996.06 1013.06,996.30 1012.31,996.55 1011.57,996.82 1010.85,997.10 1010.15,997.40 1009.46,997.73 1008.79,998.07 1008.14,998.43 1007.50,998.82 1006.89,999.23 1006.30,999.67 1005.73,1000.13 1005.18,1000.61 1004.66,1001.11 1004.17,1001.63 1003.71,1002.18 1003.27,1002.75 1002.87,1003.33 1002.49,1003.94 1002.15,1004.56 1001.85,1005.20 1001.57,1005.85 1001.33,1006.51 1001.13,1007.19 1000.96,1007.88 1000.82,1008.57 1000.71,1009.28 1000.64,1010.00 1000.59,1010.72 1000.58,1011.45 1000.59,1012.19"/>
  </edge>
  <junction id="traj_4_13_s" type="priority" x="977.15" y="990.36" incLanes="" intLanes="" shape="977.15,990.36"/>
  <junction id="traj_4_13_e" type="priority" x="988.62" y="965.63" incLanes="" intLanes="" shape="988.62,965.63"/>
  <edge id="traj_4_13" from="traj_4_13_s" to="traj_4_13_e">
    <lane id="traj_4_13_0" index="0" speed="13.89" length="28.65" shape="977.15,990.36 977.79,990.05 978.41,989.72 979.02,989.37 979.61,988.99 980.17,988.59 980.72,988.16 981.25,987.70 981.76,987.22 982.25,986.70 982.72,986.15 983.16,985.58 983.59,984.97 983.99,984.33 984.37,983.67 984.72,982.97 985.05,982.24 985.36,981.49 985.65,980.71 985.92,979.90 986.16,979.07 986.40,978.21 986.61,977.34 986.82,976.43 987.01,975.51 987.19,974.58 987.36,973.62 987.53,972.65 987.70,971.67 987.86,970.68 988.01,969.67 988.17,968.67 988.32,967.66 988.47,966.64 988.62,965.63"/>
  </edge>
  <junction id="traj_4_5_s" type="priority" x="1000.40" y="981.30" incLanes="" intLanes="" shape="1000.40,981.30"/>
  <junction id="traj_4_5_e" type="priority" x="1018.64" y="982.97" incLanes="" intLanes="" shape="1018.64,982.97"/>
  <edge id="traj_4_5" from="traj_4_5_s" to="traj_4_5_e">
    <lane id="traj_4_5_0" index="0" speed="13.89" length="18.61" shape="1000.40,981.30 1000.67,981.46 1000.95,981.61 1001.24,981.76 1001.53,981.91 1001.84,982.05 1002.16,982.18 1002.49,982.31 1002.83,982.43 1003.18,982.55 1003.55,982.66 1003.92,982.76 1004.31,982.86 1004.71,982.94 1005.12,983.02 1005.54,983.10 1005.98,983.16 1006.42,983.22 1006.87,983.26 1007.34,983.31 1007.81,983.34 1008.29,983.36 1008.79,983.38 1009.29,983.40 1009.80,983.40 1010.32,983.40 1010.85,983.40 1011.39,983.39 1011.94,983.37 1012.50,983.35 1013.07,983.33 1013.65,983.30 1014.24,983.27 1014.84,983.23 1015.45,983.20 1016.07,983.15 1016.70,983.11 1017.33,983.06 1017.98,983.02 1018.64,982.97"/>
  </edge>
  <junction id="traj_4_8_s" type="priority" x="1016.15" y="987.05" incLanes="" intLanes="" shape="1016.15,987.05"/>
  <junction id="traj_4_8_e" type="priority" x="1034.43" y="984.00" incLanes="" intLanes="" shape="1034.43,984.00"/>
  <edge id="traj_4_8" from="traj_4_8_s" to="traj_4_8_e">
    <lane id="traj_4_8_0" index="0" speed="13.89" length="18.53" shape="1016.15,987.05 1017.19,986.87 1018.23,986.69 1019.27,986.52 1020.30,986.34 1021.33,986.17 1022.36,986.00 1023.38,985.83 1024.40,985.66 1025.41,985.49 1026.42,985.32 1027.43,985.16 1028.44,984.99 1029.44,984.83 1030.44,984.66 1031.44,984.50 1032.44,984.33 1033.43,984.17 1034.43,984.00"/>
  </edge>
  <junction id="traj_4_17_s" type="priority" x="936.23" y="1000.62" incLanes="" intLanes="" shape="936.23,1000.62"/>
  <junction id="traj_4_17_e" type="priority" x="950.02" y="997.87" incLanes="" intLanes="" shape="950.02,997.87"/>
  <edge id="traj_4_17" from="traj_4_17_s" to="traj_4_17_e">
    <lane id="traj_4_17_0" index="0" speed="13.89" length="14.06" shape="936.23,1000.62 937.37,1000.39 938.52,1000.17 939.66,999.94 940.81,999.71 941.95,999.48 943.10,999.26 944.25,999.03 945.40,998.80 946.56,998.57 947.71,998.34 948.86,998.11 950.02,997.87"/>
  </edge>
</net>
